
     RDKit          3D

 13  0  0  0  0  0  0  0  0  0999 V2000
  -26.6951   -2.9024    0.3902 I   0  0  0  0  0  0  0  0  0  0  0  0
  -28.5405   -6.6486    0.8649 I   0  0  0  0  0  0  0  0  0  0  0  0
  -31.9028   -6.5556    1.1806 I   0  0  0  0  0  0  0  0  0  0  0  0
  -40.8548  -14.0161   12.6129 I   0  0  0  0  0  0  0  0  0  0  0  0
  -49.9286  -14.2381   -5.1429 I   0  0  0  0  0  0  0  0  0  0  0  0
  -27.3667   -4.8000   -3.6333 I   0  0  0  0  0  0  0  0  0  0  0  0
  -35.2692   -6.8077    3.8462 I   0  0  0  0  0  0  0  0  0  0  0  0
  -42.9091  -12.7727   15.7273 I   0  0  0  0  0  0  0  0  0  0  0  0
  -29.7273   -2.4545   -4.5909 I   0  0  0  0  0  0  0  0  0  0  0  0
  -26.6875   -5.0000    2.8750 I   0  0  0  0  0  0  0  0  0  0  0  0
  -25.2500   -5.7500   -1.2500 I   0  0  0  0  0  0  0  0  0  0  0  0
  -48.0000  -15.5000   -6.0000 I   0  0  0  0  0  0  0  0  0  0  0  0
  -31.5000   -9.0000    5.0000 I   0  0  0  0  0  0  0  0  0  0  0  0
M  END
